.model Mbreakp PMOS( Kp={2*1m}, Vto=-1, lambda=0) 
*$
.model Mbreakn NMOS( Kp={2*0.5m}, Vto=1, lambda=0) 
*$
