.model Mbreakn NMOS( Kp={2*10m}, Vto=2V, lambda=0.02) 
*$
