.model Mbreakp PMOS( Kp={2*0.5m}, Vto=-1V, lambda=0.01) 
*$
